#======================================================================

# CRYSTAL DATA

#----------------------------------------------------------------------

data_VESTA_phase_1


_chemical_name_common                  ''
_cell_length_a                         16.35081
_cell_length_b                         16.35081
_cell_length_c                         5.45027
_cell_angle_alpha                      90
_cell_angle_beta                       90
_cell_angle_gamma                      90
_space_group_name_H-M_alt              'F -4 3 m'
_space_group_IT_number                 216

loop_
_space_group_symop_operation_xyz
   'x, y, z'
   '-x, -y, z'
   '-x, y, -z'
   'x, -y, -z'
   '1/3z, x, 3y'
   '1/3z, -x, -3y'
   '-1/3z, -x, 3y'
   '-1/3z, x, -3y'
   'y, 1/3z, 3x'
   '-y, 1/3z, -3x'
   'y, -1/3z, -3x'
   '-y, -1/3z, 3x'
   'y, x, z'
   '-y, -x, z'
   'y, -x, -z'
   '-y, x, -z'
   'x, 1/3z, 3y'
   '-x, 1/3z, -3y'
   '-x, -1/3z, 3y'
   'x, -1/3z, -3y'
   '1/3z, y, 3x'
   '1/3z, -y, -3x'
   '-1/3z, y, -3x'
   '-1/3z, -y, 3x'
   'x, y+1/6, z+1/2'
   '-x, -y+1/6, z+1/2'
   '-x, y+1/6, -z+1/2'
   'x, -y+1/6, -z+1/2'
   '1/3z, x+1/6, 3y+1/2'
   '1/3z, -x+1/6, -3y+1/2'
   '-1/3z, -x+1/6, 3y+1/2'
   '-1/3z, x+1/6, -3y+1/2'
   'y, 1/3z+1/6, 3x+1/2'
   '-y, 1/3z+1/6, -3x+1/2'
   'y, -1/3z+1/6, -3x+1/2'
   '-y, -1/3z+1/6, 3x+1/2'
   'y, x+1/6, z+1/2'
   '-y, -x+1/6, z+1/2'
   'y, -x+1/6, -z+1/2'
   '-y, x+1/6, -z+1/2'
   'x, 1/3z+1/6, 3y+1/2'
   '-x, 1/3z+1/6, -3y+1/2'
   '-x, -1/3z+1/6, 3y+1/2'
   'x, -1/3z+1/6, -3y+1/2'
   '1/3z, y+1/6, 3x+1/2'
   '1/3z, -y+1/6, -3x+1/2'
   '-1/3z, y+1/6, -3x+1/2'
   '-1/3z, -y+1/6, 3x+1/2'
   'x+1/6, y, z+1/2'
   '-x+1/6, -y, z+1/2'
   '-x+1/6, y, -z+1/2'
   'x+1/6, -y, -z+1/2'
   '1/3z+1/6, x, 3y+1/2'
   '1/3z+1/6, -x, -3y+1/2'
   '-1/3z+1/6, -x, 3y+1/2'
   '-1/3z+1/6, x, -3y+1/2'
   'y+1/6, 1/3z, 3x+1/2'
   '-y+1/6, 1/3z, -3x+1/2'
   'y+1/6, -1/3z, -3x+1/2'
   '-y+1/6, -1/3z, 3x+1/2'
   'y+1/6, x, z+1/2'
   '-y+1/6, -x, z+1/2'
   'y+1/6, -x, -z+1/2'
   '-y+1/6, x, -z+1/2'
   'x+1/6, 1/3z, 3y+1/2'
   '-x+1/6, 1/3z, -3y+1/2'
   '-x+1/6, -1/3z, 3y+1/2'
   'x+1/6, -1/3z, -3y+1/2'
   '1/3z+1/6, y, 3x+1/2'
   '1/3z+1/6, -y, -3x+1/2'
   '-1/3z+1/6, y, -3x+1/2'
   '-1/3z+1/6, -y, 3x+1/2'
   'x+1/6, y+1/6, z'
   '-x+1/6, -y+1/6, z'
   '-x+1/6, y+1/6, -z'
   'x+1/6, -y+1/6, -z'
   '1/3z+1/6, x+1/6, 3y'
   '1/3z+1/6, -x+1/6, -3y'
   '-1/3z+1/6, -x+1/6, 3y'
   '-1/3z+1/6, x+1/6, -3y'
   'y+1/6, 1/3z+1/6, 3x'
   '-y+1/6, 1/3z+1/6, -3x'
   'y+1/6, -1/3z+1/6, -3x'
   '-y+1/6, -1/3z+1/6, 3x'
   'y+1/6, x+1/6, z'
   '-y+1/6, -x+1/6, z'
   'y+1/6, -x+1/6, -z'
   '-y+1/6, x+1/6, -z'
   'x+1/6, 1/3z+1/6, 3y'
   '-x+1/6, 1/3z+1/6, -3y'
   '-x+1/6, -1/3z+1/6, 3y'
   'x+1/6, -1/3z+1/6, -3y'
   '1/3z+1/6, y+1/6, 3x'
   '1/3z+1/6, -y+1/6, -3x'
   '-1/3z+1/6, y+1/6, -3x'
   '-1/3z+1/6, -y+1/6, 3x'
   'x, y+1/3, z'
   '-x, -y+2/3, z'
   '-x, y+1/3, -z'
   'x, -y+2/3, -z'
   'y+1/3, 1/3z, 3x'
   '-y+2/3, 1/3z, -3x'
   'y+1/3, -1/3z, -3x'
   '-y+2/3, -1/3z, 3x'
   'y+1/3, x, z'
   '-y+2/3, -x, z'
   'y+1/3, -x, -z'
   '-y+2/3, x, -z'
   '1/3z, y+1/3, 3x'
   '1/3z, -y+2/3, -3x'
   '-1/3z, y+1/3, -3x'
   '-1/3z, -y+2/3, 3x'
   'x, y+1/2, z+1/2'
   '-x, -y+5/6, z+1/2'
   '-x, y+1/2, -z+1/2'
   'x, -y+5/6, -z+1/2'
   'y+1/3, 1/3z+1/6, 3x+1/2'
   '-y+2/3, 1/3z+1/6, -3x+1/2'
   'y+1/3, -1/3z+1/6, -3x+1/2'
   '-y+2/3, -1/3z+1/6, 3x+1/2'
   'y+1/3, x+1/6, z+1/2'
   '-y+2/3, -x+1/6, z+1/2'
   'y+1/3, -x+1/6, -z+1/2'
   '-y+2/3, x+1/6, -z+1/2'
   '1/3z, y+1/2, 3x+1/2'
   '1/3z, -y+5/6, -3x+1/2'
   '-1/3z, y+1/2, -3x+1/2'
   '-1/3z, -y+5/6, 3x+1/2'
   'x+1/6, y+1/3, z+1/2'
   '-x+1/6, -y+2/3, z+1/2'
   '-x+1/6, y+1/3, -z+1/2'
   'x+1/6, -y+2/3, -z+1/2'
   'y+1/2, 1/3z, 3x+1/2'
   '-y+5/6, 1/3z, -3x+1/2'
   'y+1/2, -1/3z, -3x+1/2'
   '-y+5/6, -1/3z, 3x+1/2'
   'y+1/2, x, z+1/2'
   '-y+5/6, -x, z+1/2'
   'y+1/2, -x, -z+1/2'
   '-y+5/6, x, -z+1/2'
   '1/3z+1/6, y+1/3, 3x+1/2'
   '1/3z+1/6, -y+2/3, -3x+1/2'
   '-1/3z+1/6, y+1/3, -3x+1/2'
   '-1/3z+1/6, -y+2/3, 3x+1/2'
   'x+1/6, y+1/2, z'
   '-x+1/6, -y+5/6, z'
   '-x+1/6, y+1/2, -z'
   'x+1/6, -y+5/6, -z'
   'y+1/2, 1/3z+1/6, 3x'
   '-y+5/6, 1/3z+1/6, -3x'
   'y+1/2, -1/3z+1/6, -3x'
   '-y+5/6, -1/3z+1/6, 3x'
   'y+1/2, x+1/6, z'
   '-y+5/6, -x+1/6, z'
   'y+1/2, -x+1/6, -z'
   '-y+5/6, x+1/6, -z'
   '1/3z+1/6, y+1/2, 3x'
   '1/3z+1/6, -y+5/6, -3x'
   '-1/3z+1/6, y+1/2, -3x'
   '-1/3z+1/6, -y+5/6, 3x'
   'x, y+2/3, z'
   '-x, -y+1/3, z'
   '-x, y+2/3, -z'
   'x, -y+1/3, -z'
   'y+2/3, 1/3z, 3x'
   '-y+1/3, 1/3z, -3x'
   'y+2/3, -1/3z, -3x'
   '-y+1/3, -1/3z, 3x'
   'y+2/3, x, z'
   '-y+1/3, -x, z'
   'y+2/3, -x, -z'
   '-y+1/3, x, -z'
   '1/3z, y+2/3, 3x'
   '1/3z, -y+1/3, -3x'
   '-1/3z, y+2/3, -3x'
   '-1/3z, -y+1/3, 3x'
   'x, y+5/6, z+1/2'
   '-x, -y+1/2, z+1/2'
   '-x, y+5/6, -z+1/2'
   'x, -y+1/2, -z+1/2'
   'y+2/3, 1/3z+1/6, 3x+1/2'
   '-y+1/3, 1/3z+1/6, -3x+1/2'
   'y+2/3, -1/3z+1/6, -3x+1/2'
   '-y+1/3, -1/3z+1/6, 3x+1/2'
   'y+2/3, x+1/6, z+1/2'
   '-y+1/3, -x+1/6, z+1/2'
   'y+2/3, -x+1/6, -z+1/2'
   '-y+1/3, x+1/6, -z+1/2'
   '1/3z, y+5/6, 3x+1/2'
   '1/3z, -y+1/2, -3x+1/2'
   '-1/3z, y+5/6, -3x+1/2'
   '-1/3z, -y+1/2, 3x+1/2'
   'x+1/6, y+2/3, z+1/2'
   '-x+1/6, -y+1/3, z+1/2'
   '-x+1/6, y+2/3, -z+1/2'
   'x+1/6, -y+1/3, -z+1/2'
   'y+5/6, 1/3z, 3x+1/2'
   '-y+1/2, 1/3z, -3x+1/2'
   'y+5/6, -1/3z, -3x+1/2'
   '-y+1/2, -1/3z, 3x+1/2'
   'y+5/6, x, z+1/2'
   '-y+1/2, -x, z+1/2'
   'y+5/6, -x, -z+1/2'
   '-y+1/2, x, -z+1/2'
   '1/3z+1/6, y+2/3, 3x+1/2'
   '1/3z+1/6, -y+1/3, -3x+1/2'
   '-1/3z+1/6, y+2/3, -3x+1/2'
   '-1/3z+1/6, -y+1/3, 3x+1/2'
   'x+1/6, y+5/6, z'
   '-x+1/6, -y+1/2, z'
   '-x+1/6, y+5/6, -z'
   'x+1/6, -y+1/2, -z'
   'y+5/6, 1/3z+1/6, 3x'
   '-y+1/2, 1/3z+1/6, -3x'
   'y+5/6, -1/3z+1/6, -3x'
   '-y+1/2, -1/3z+1/6, 3x'
   'y+5/6, x+1/6, z'
   '-y+1/2, -x+1/6, z'
   'y+5/6, -x+1/6, -z'
   '-y+1/2, x+1/6, -z'
   '1/3z+1/6, y+5/6, 3x'
   '1/3z+1/6, -y+1/2, -3x'
   '-1/3z+1/6, y+5/6, -3x'
   '-1/3z+1/6, -y+1/2, 3x'
   'x+1/3, y, z'
   '-x+2/3, -y, z'
   '-x+2/3, y, -z'
   'x+1/3, -y, -z'
   '1/3z, x+1/3, 3y'
   '1/3z, -x+2/3, -3y'
   '-1/3z, -x+2/3, 3y'
   '-1/3z, x+1/3, -3y'
   'y, x+1/3, z'
   '-y, -x+2/3, z'
   'y, -x+2/3, -z'
   '-y, x+1/3, -z'
   'x+1/3, 1/3z, 3y'
   '-x+2/3, 1/3z, -3y'
   '-x+2/3, -1/3z, 3y'
   'x+1/3, -1/3z, -3y'
   'x+1/3, y+1/6, z+1/2'
   '-x+2/3, -y+1/6, z+1/2'
   '-x+2/3, y+1/6, -z+1/2'
   'x+1/3, -y+1/6, -z+1/2'
   '1/3z, x+1/2, 3y+1/2'
   '1/3z, -x+5/6, -3y+1/2'
   '-1/3z, -x+5/6, 3y+1/2'
   '-1/3z, x+1/2, -3y+1/2'
   'y, x+1/2, z+1/2'
   '-y, -x+5/6, z+1/2'
   'y, -x+5/6, -z+1/2'
   '-y, x+1/2, -z+1/2'
   'x+1/3, 1/3z+1/6, 3y+1/2'
   '-x+2/3, 1/3z+1/6, -3y+1/2'
   '-x+2/3, -1/3z+1/6, 3y+1/2'
   'x+1/3, -1/3z+1/6, -3y+1/2'
   'x+1/2, y, z+1/2'
   '-x+5/6, -y, z+1/2'
   '-x+5/6, y, -z+1/2'
   'x+1/2, -y, -z+1/2'
   '1/3z+1/6, x+1/3, 3y+1/2'
   '1/3z+1/6, -x+2/3, -3y+1/2'
   '-1/3z+1/6, -x+2/3, 3y+1/2'
   '-1/3z+1/6, x+1/3, -3y+1/2'
   'y+1/6, x+1/3, z+1/2'
   '-y+1/6, -x+2/3, z+1/2'
   'y+1/6, -x+2/3, -z+1/2'
   '-y+1/6, x+1/3, -z+1/2'
   'x+1/2, 1/3z, 3y+1/2'
   '-x+5/6, 1/3z, -3y+1/2'
   '-x+5/6, -1/3z, 3y+1/2'
   'x+1/2, -1/3z, -3y+1/2'
   'x+1/2, y+1/6, z'
   '-x+5/6, -y+1/6, z'
   '-x+5/6, y+1/6, -z'
   'x+1/2, -y+1/6, -z'
   '1/3z+1/6, x+1/2, 3y'
   '1/3z+1/6, -x+5/6, -3y'
   '-1/3z+1/6, -x+5/6, 3y'
   '-1/3z+1/6, x+1/2, -3y'
   'y+1/6, x+1/2, z'
   '-y+1/6, -x+5/6, z'
   'y+1/6, -x+5/6, -z'
   '-y+1/6, x+1/2, -z'
   'x+1/2, 1/3z+1/6, 3y'
   '-x+5/6, 1/3z+1/6, -3y'
   '-x+5/6, -1/3z+1/6, 3y'
   'x+1/2, -1/3z+1/6, -3y'
   'x+1/3, y+1/3, z'
   '-x+2/3, -y+2/3, z'
   '-x+2/3, y+1/3, -z'
   'x+1/3, -y+2/3, -z'
   'y+1/3, x+1/3, z'
   '-y+2/3, -x+2/3, z'
   'y+1/3, -x+2/3, -z'
   '-y+2/3, x+1/3, -z'
   'x+1/3, y+1/2, z+1/2'
   '-x+2/3, -y+5/6, z+1/2'
   '-x+2/3, y+1/2, -z+1/2'
   'x+1/3, -y+5/6, -z+1/2'
   'y+1/3, x+1/2, z+1/2'
   '-y+2/3, -x+5/6, z+1/2'
   'y+1/3, -x+5/6, -z+1/2'
   '-y+2/3, x+1/2, -z+1/2'
   'x+1/2, y+1/3, z+1/2'
   '-x+5/6, -y+2/3, z+1/2'
   '-x+5/6, y+1/3, -z+1/2'
   'x+1/2, -y+2/3, -z+1/2'
   'y+1/2, x+1/3, z+1/2'
   '-y+5/6, -x+2/3, z+1/2'
   'y+1/2, -x+2/3, -z+1/2'
   '-y+5/6, x+1/3, -z+1/2'
   'x+1/2, y+1/2, z'
   '-x+5/6, -y+5/6, z'
   '-x+5/6, y+1/2, -z'
   'x+1/2, -y+5/6, -z'
   'y+1/2, x+1/2, z'
   '-y+5/6, -x+5/6, z'
   'y+1/2, -x+5/6, -z'
   '-y+5/6, x+1/2, -z'
   'x+1/3, y+2/3, z'
   '-x+2/3, -y+1/3, z'
   '-x+2/3, y+2/3, -z'
   'x+1/3, -y+1/3, -z'
   'y+2/3, x+1/3, z'
   '-y+1/3, -x+2/3, z'
   'y+2/3, -x+2/3, -z'
   '-y+1/3, x+1/3, -z'
   'x+1/3, y+5/6, z+1/2'
   '-x+2/3, -y+1/2, z+1/2'
   '-x+2/3, y+5/6, -z+1/2'
   'x+1/3, -y+1/2, -z+1/2'
   'y+2/3, x+1/2, z+1/2'
   '-y+1/3, -x+5/6, z+1/2'
   'y+2/3, -x+5/6, -z+1/2'
   '-y+1/3, x+1/2, -z+1/2'
   'x+1/2, y+2/3, z+1/2'
   '-x+5/6, -y+1/3, z+1/2'
   '-x+5/6, y+2/3, -z+1/2'
   'x+1/2, -y+1/3, -z+1/2'
   'y+5/6, x+1/3, z+1/2'
   '-y+1/2, -x+2/3, z+1/2'
   'y+5/6, -x+2/3, -z+1/2'
   '-y+1/2, x+1/3, -z+1/2'
   'x+1/2, y+5/6, z'
   '-x+5/6, -y+1/2, z'
   '-x+5/6, y+5/6, -z'
   'x+1/2, -y+1/2, -z'
   'y+5/6, x+1/2, z'
   '-y+1/2, -x+5/6, z'
   'y+5/6, -x+5/6, -z'
   '-y+1/2, x+1/2, -z'
   'x+2/3, y, z'
   '-x+1/3, -y, z'
   '-x+1/3, y, -z'
   'x+2/3, -y, -z'
   '1/3z, x+2/3, 3y'
   '1/3z, -x+1/3, -3y'
   '-1/3z, -x+1/3, 3y'
   '-1/3z, x+2/3, -3y'
   'y, x+2/3, z'
   '-y, -x+1/3, z'
   'y, -x+1/3, -z'
   '-y, x+2/3, -z'
   'x+2/3, 1/3z, 3y'
   '-x+1/3, 1/3z, -3y'
   '-x+1/3, -1/3z, 3y'
   'x+2/3, -1/3z, -3y'
   'x+2/3, y+1/6, z+1/2'
   '-x+1/3, -y+1/6, z+1/2'
   '-x+1/3, y+1/6, -z+1/2'
   'x+2/3, -y+1/6, -z+1/2'
   '1/3z, x+5/6, 3y+1/2'
   '1/3z, -x+1/2, -3y+1/2'
   '-1/3z, -x+1/2, 3y+1/2'
   '-1/3z, x+5/6, -3y+1/2'
   'y, x+5/6, z+1/2'
   '-y, -x+1/2, z+1/2'
   'y, -x+1/2, -z+1/2'
   '-y, x+5/6, -z+1/2'
   'x+2/3, 1/3z+1/6, 3y+1/2'
   '-x+1/3, 1/3z+1/6, -3y+1/2'
   '-x+1/3, -1/3z+1/6, 3y+1/2'
   'x+2/3, -1/3z+1/6, -3y+1/2'
   'x+5/6, y, z+1/2'
   '-x+1/2, -y, z+1/2'
   '-x+1/2, y, -z+1/2'
   'x+5/6, -y, -z+1/2'
   '1/3z+1/6, x+2/3, 3y+1/2'
   '1/3z+1/6, -x+1/3, -3y+1/2'
   '-1/3z+1/6, -x+1/3, 3y+1/2'
   '-1/3z+1/6, x+2/3, -3y+1/2'
   'y+1/6, x+2/3, z+1/2'
   '-y+1/6, -x+1/3, z+1/2'
   'y+1/6, -x+1/3, -z+1/2'
   '-y+1/6, x+2/3, -z+1/2'
   'x+5/6, 1/3z, 3y+1/2'
   '-x+1/2, 1/3z, -3y+1/2'
   '-x+1/2, -1/3z, 3y+1/2'
   'x+5/6, -1/3z, -3y+1/2'
   'x+5/6, y+1/6, z'
   '-x+1/2, -y+1/6, z'
   '-x+1/2, y+1/6, -z'
   'x+5/6, -y+1/6, -z'
   '1/3z+1/6, x+5/6, 3y'
   '1/3z+1/6, -x+1/2, -3y'
   '-1/3z+1/6, -x+1/2, 3y'
   '-1/3z+1/6, x+5/6, -3y'
   'y+1/6, x+5/6, z'
   '-y+1/6, -x+1/2, z'
   'y+1/6, -x+1/2, -z'
   '-y+1/6, x+5/6, -z'
   'x+5/6, 1/3z+1/6, 3y'
   '-x+1/2, 1/3z+1/6, -3y'
   '-x+1/2, -1/3z+1/6, 3y'
   'x+5/6, -1/3z+1/6, -3y'
   'x+2/3, y+1/3, z'
   '-x+1/3, -y+2/3, z'
   '-x+1/3, y+1/3, -z'
   'x+2/3, -y+2/3, -z'
   'y+1/3, x+2/3, z'
   '-y+2/3, -x+1/3, z'
   'y+1/3, -x+1/3, -z'
   '-y+2/3, x+2/3, -z'
   'x+2/3, y+1/2, z+1/2'
   '-x+1/3, -y+5/6, z+1/2'
   '-x+1/3, y+1/2, -z+1/2'
   'x+2/3, -y+5/6, -z+1/2'
   'y+1/3, x+5/6, z+1/2'
   '-y+2/3, -x+1/2, z+1/2'
   'y+1/3, -x+1/2, -z+1/2'
   '-y+2/3, x+5/6, -z+1/2'
   'x+5/6, y+1/3, z+1/2'
   '-x+1/2, -y+2/3, z+1/2'
   '-x+1/2, y+1/3, -z+1/2'
   'x+5/6, -y+2/3, -z+1/2'
   'y+1/2, x+2/3, z+1/2'
   '-y+5/6, -x+1/3, z+1/2'
   'y+1/2, -x+1/3, -z+1/2'
   '-y+5/6, x+2/3, -z+1/2'
   'x+5/6, y+1/2, z'
   '-x+1/2, -y+5/6, z'
   '-x+1/2, y+1/2, -z'
   'x+5/6, -y+5/6, -z'
   'y+1/2, x+5/6, z'
   '-y+5/6, -x+1/2, z'
   'y+1/2, -x+1/2, -z'
   '-y+5/6, x+5/6, -z'
   'x+2/3, y+2/3, z'
   '-x+1/3, -y+1/3, z'
   '-x+1/3, y+2/3, -z'
   'x+2/3, -y+1/3, -z'
   'y+2/3, x+2/3, z'
   '-y+1/3, -x+1/3, z'
   'y+2/3, -x+1/3, -z'
   '-y+1/3, x+2/3, -z'
   'x+2/3, y+5/6, z+1/2'
   '-x+1/3, -y+1/2, z+1/2'
   '-x+1/3, y+5/6, -z+1/2'
   'x+2/3, -y+1/2, -z+1/2'
   'y+2/3, x+5/6, z+1/2'
   '-y+1/3, -x+1/2, z+1/2'
   'y+2/3, -x+1/2, -z+1/2'
   '-y+1/3, x+5/6, -z+1/2'
   'x+5/6, y+2/3, z+1/2'
   '-x+1/2, -y+1/3, z+1/2'
   '-x+1/2, y+2/3, -z+1/2'
   'x+5/6, -y+1/3, -z+1/2'
   'y+5/6, x+2/3, z+1/2'
   '-y+1/2, -x+1/3, z+1/2'
   'y+5/6, -x+1/3, -z+1/2'
   '-y+1/2, x+2/3, -z+1/2'
   'x+5/6, y+5/6, z'
   '-x+1/2, -y+1/2, z'
   '-x+1/2, y+5/6, -z'
   'x+5/6, -y+1/2, -z'
   'y+5/6, x+5/6, z'
   '-y+1/2, -x+1/2, z'
   'y+5/6, -x+1/2, -z'
   '-y+1/2, x+5/6, -z'

loop_
   _atom_site_label
   _atom_site_occupancy
   _atom_site_fract_x
   _atom_site_fract_y
   _atom_site_fract_z
   _atom_site_adp_type
   _atom_site_B_iso_or_equiv
   _atom_site_type_symbol
   Zn0        1.0     0.000000      0.000000      0.000000     Biso  1.000000 Zn
   Zn1        1.0     0.000000      0.166667      0.500000     Biso  1.000000 Zn
   Zn2        1.0     0.166667      0.000000      0.500000     Biso  1.000000 Zn
   Zn3        1.0     0.166667      0.166667      0.000000     Biso  1.000000 Zn
   S4         1.0     0.083333      0.083333      0.750000     Biso  1.000000 S
   S5         1.0     0.083333      0.250000      0.250000     Biso  1.000000 S
   S6         1.0     0.250000      0.083333      0.250000     Biso  1.000000 S
   S7         1.0     0.250000      0.250000      0.750000     Biso  1.000000 S
